version 2
run General-0-20160425-16:08:13-21458
attr configname General
attr datetime 20160425-16:08:13
attr experiment General
attr inifile omnetpp.ini
attr iterationvars ""
attr iterationvars2 $repetition=0
attr measurement ""
attr network RRTest
attr processid 21458
attr repetition 0
attr replication #0
attr resultdir results
attr runnumber 0
attr seedset 0

